Version 4
SHEET 1 1204 680
WIRE 144 -64 80 -64
WIRE 288 -64 224 -64
WIRE 304 -64 288 -64
WIRE 80 0 80 -64
WIRE 80 144 80 80
WIRE 304 144 304 -64
WIRE 80 256 80 224
WIRE 176 256 80 256
WIRE 304 256 304 208
WIRE 304 256 176 256
WIRE 176 272 176 256
FLAG 176 272 0
FLAG 288 -64 out
SYMBOL voltage 80 128 R0
WINDOW 123 0 0 Left 2
WINDOW 39 0 0 Left 2
SYMATTR InstName V1
SYMATTR Value {Vbias}
SYMBOL res 240 -80 R90
WINDOW 0 0 56 VBottom 2
WINDOW 3 32 56 VTop 2
SYMATTR InstName R1
SYMATTR Value 100k
SYMBOL diode 320 208 R180
WINDOW 0 24 64 Left 2
WINDOW 3 24 0 Left 2
SYMATTR InstName D1
SYMATTR Value BB112
SYMBOL voltage 80 -16 R0
WINDOW 123 24 124 Left 2
WINDOW 39 0 0 Left 2
SYMATTR InstName V2
SYMATTR Value ""
SYMATTR Value2 AC 1
TEXT -224 352 Left 2 !.MODEL BB112 D (IS=75.8P RS=1.4 N=1.72 BV=15.9 IBV=50N CJO=692P VJ=.845 M=.576 TT=360N)
TEXT -224 392 Left 2 !.STEP PARAM Vbias 0 2.5 0.5
TEXT -224 432 Left 2 !.ac dec 100 100 100k
