Version 4
SHEET 1 880 680
SYMBOL OpAmps\\AD549 176 96 R0
SYMATTR InstName U1
SYMBOL current 176 -160 R0
SYMATTR InstName I1
